<?xml version="1.0"?>

<routes> <!-- The opening tag -->

   <!-- Vehicle types -->
   <vType id="passenger" length="5.0" width="2.0" maxSpeed="70.0" accel="2.6" decel="4.5" sigma="0.5"/>

   <!-- Routes + associated vehicles & flows -->
   <route id="trip-0" color="Green" edges="-7264218#1 7400511 7389380#1 7389380#2 305454911#2 305454911#3 305454911#4 305454911#5 305454120#0 43783208#0 43783208#2 43783208#3 43783208#4 646809382#0 646809382#1 646809382#2 646809382#3 7408630 7328091#4"/>
   <vehicle id="vehicle-0" type="passenger" color="Blue" depart="0.0" route="trip-0"/>

   <route id="trip-1" color="Green" edges="7237383 -7237383 -7241194#0 7245393#1 7359997#1 305454129#3 305454129#4 7342056#0 7342056#0-AddedOffRampEdge 7342056#2 43783206#0 43783206#1 43783206#2 45101504#0 45101504#1 45101504#2 45101504#3 -305454122#3 -305454122#1 -305454122#0 185937928#0 -7235610#2 -7287456#1 7287456#1"/>
   <vehicle id="vehicle-1" type="passenger" color="Blue" depart="0.01" route="trip-1"/>

   <route id="trip-2" color="Green" edges="912727603#4 -912727603#4 -912727603#3 -912727603#2 -912727603#1 -912727603#0 -164423261#1 -164423261#0 45101482 -45101488#18 -45101488#16 -751820142#8 -751820142#7 -751820142#6 -751820142#5 -751820142#4 -751820142#3 -751820142#2 -751820142#1 -751820142#0 -45101488#5 -45101488#4 -45101488#3 -45101488#2 -45101488#1"/>
   <vehicle id="vehicle-2" type="passenger" color="Blue" depart="0.02" route="trip-2"/>

   <route id="trip-3" color="Green" edges="-45101508 45101520#4 43783240#0 43783240#2 43783240#4 43783239#0 43783239#2 43783239#3 43783239#4 551334422#0 45101504#1 45101504#2 45101504#3 -305454911#6 -305454911#4 -305454911#3 -305454911#2 -7389380#2 7305016#0 7305016#1 7305016#2"/>
   <vehicle id="vehicle-3" type="passenger" color="Blue" depart="0.03" route="trip-3"/>

   <route id="trip-4" color="Green" edges="-45101458#4 -45101458#3 -45101458#2 -45101458#1 -45101458#0 43783244#2 43783240#2 43783240#4 43783239#0 43783239#2 43783239#3 43783239#4 43783239#5 43783208#0 43783208#2 43783208#3 43783208#4 646809382#0 646809382#1 646809382#2 646809382#3 646809382#4 -305454129#5 -305454129#3 -7359997#1 -7245393#1"/>
   <vehicle id="vehicle-4" type="passenger" color="Blue" depart="0.04" route="trip-4"/>

   <route id="trip-5" color="Green" edges="-7336674 -7371709#0 -7204028 -7410866#1 7410866#1"/>
   <vehicle id="vehicle-5" type="passenger" color="Blue" depart="0.05" route="trip-5"/>

</routes> <!-- The closing tag -->
